* File: inv_chain2.pex.spi
* Created: Fri Dec  7 14:20:57 2018
* Program "Calibre xRC"
* Version "v2016.4_15.11"
* 
.include "inv_chain2.pex.spi.pex"
.subckt inv_chain2  VSS VDD OUT1 OUT2 OUT3 OUT4 OUT5 OUT9 OUT6 OUT7 OUT8
* 
* OUT8	OUT8
* OUT7	OUT7
* OUT6	OUT6
* OUT9	OUT9
* OUT5	OUT5
* OUT4	OUT4
* OUT3	OUT3
* OUT2	OUT2
* OUT1	OUT1
* VDD	VDD
* VSS	VSS
Mn1 N_OUT1_Mn1_d N_OUT9_Mn1_g N_VSS_Mn1_s N_VSS_Mn7@1159_b N_18 L=1.8e-07
+ W=5e-07 AD=2.955e-13 AS=2.995e-13 PD=1.682e-06 PS=1.698e-06
Mn2 N_OUT2_Mn2_d N_OUT1_Mn2_g N_VSS_Mn2_s N_VSS_Mn7@1159_b N_18 L=1.8e-07
+ W=5e-07 AD=1.325e-13 AS=2.995e-13 PD=5.3e-07 PS=1.698e-06
Mn2@3 N_OUT2_Mn2@3_d N_OUT1_Mn2@3_g N_VSS_Mn2@3_s N_VSS_Mn7@1159_b N_18
+ L=1.8e-07 W=5e-07 AD=1.325e-13 AS=1.3125e-13 PD=5.3e-07 PS=5.25e-07
Mn2@2 N_OUT2_Mn2@2_d N_OUT1_Mn2@2_g N_VSS_Mn2@2_s N_VSS_Mn7@1159_b N_18
+ L=1.8e-07 W=5e-07 AD=2.955e-13 AS=1.3125e-13 PD=1.682e-06 PS=5.25e-07
Mn3 N_OUT3_Mn3_d N_OUT2_Mn3_g N_VSS_Mn3_s N_VSS_Mn7@1159_b N_18 L=1.8e-07
+ W=5e-07 AD=1.325e-13 AS=2.995e-13 PD=5.3e-07 PS=1.698e-06
Mn3@11 N_OUT3_Mn3@11_d N_OUT2_Mn3@11_g N_VSS_Mn3@11_s N_VSS_Mn7@1159_b N_18
+ L=1.8e-07 W=5e-07 AD=1.325e-13 AS=1.4125e-13 PD=5.3e-07 PS=5.65e-07
Mn3@10 N_OUT3_Mn3@10_d N_OUT2_Mn3@10_g N_VSS_Mn3@10_s N_VSS_Mn7@1159_b N_18
+ L=1.8e-07 W=5e-07 AD=1.325e-13 AS=1.4125e-13 PD=5.3e-07 PS=5.65e-07
Mn3@9 N_OUT3_Mn3@9_d N_OUT2_Mn3@9_g N_VSS_Mn3@9_s N_VSS_Mn7@1159_b N_18
+ L=1.8e-07 W=5e-07 AD=1.325e-13 AS=1.4125e-13 PD=5.3e-07 PS=5.65e-07
Mn3@8 N_OUT3_Mn3@8_d N_OUT2_Mn3@8_g N_VSS_Mn3@8_s N_VSS_Mn7@1159_b N_18
+ L=1.8e-07 W=5e-07 AD=1.325e-13 AS=1.4125e-13 PD=5.3e-07 PS=5.65e-07
Mn3@7 N_OUT3_Mn3@7_d N_OUT2_Mn3@7_g N_VSS_Mn3@7_s N_VSS_Mn7@1159_b N_18
+ L=1.8e-07 W=5e-07 AD=1.325e-13 AS=1.4125e-13 PD=5.3e-07 PS=5.65e-07
Mn3@6 N_OUT3_Mn3@6_d N_OUT2_Mn3@6_g N_VSS_Mn3@6_s N_VSS_Mn7@1159_b N_18
+ L=1.8e-07 W=5e-07 AD=1.325e-13 AS=1.4125e-13 PD=5.3e-07 PS=5.65e-07
Mn3@5 N_OUT3_Mn3@5_d N_OUT2_Mn3@5_g N_VSS_Mn3@5_s N_VSS_Mn7@1159_b N_18
+ L=1.8e-07 W=5e-07 AD=1.325e-13 AS=1.4125e-13 PD=5.3e-07 PS=5.65e-07
Mn3@4 N_OUT3_Mn3@4_d N_OUT2_Mn3@4_g N_VSS_Mn3@4_s N_VSS_Mn7@1159_b N_18
+ L=1.8e-07 W=5e-07 AD=1.325e-13 AS=1.4125e-13 PD=5.3e-07 PS=5.65e-07
Mn3@3 N_OUT3_Mn3@3_d N_OUT2_Mn3@3_g N_VSS_Mn3@3_s N_VSS_Mn7@1159_b N_18
+ L=1.8e-07 W=5e-07 AD=1.325e-13 AS=1.4125e-13 PD=5.3e-07 PS=5.65e-07
Mn3@2 N_OUT3_Mn3@2_d N_OUT2_Mn3@2_g N_VSS_Mn3@2_s N_VSS_Mn7@1159_b N_18
+ L=1.8e-07 W=5e-07 AD=2.955e-13 AS=1.4125e-13 PD=1.682e-06 PS=5.65e-07
Mn4 N_OUT4_Mn4_d N_OUT3_Mn4_g N_VSS_Mn4_s N_VSS_Mn7@1159_b N_18 L=1.8e-07
+ W=5e-07 AD=1.325e-13 AS=2.995e-13 PD=5.3e-07 PS=1.698e-06
Mn4@34 N_OUT4_Mn4@34_d N_OUT3_Mn4@34_g N_VSS_Mn4@34_s N_VSS_Mn7@1159_b N_18
+ L=1.8e-07 W=5e-07 AD=1.325e-13 AS=1.4125e-13 PD=5.3e-07 PS=5.65e-07
Mn4@33 N_OUT4_Mn4@33_d N_OUT3_Mn4@33_g N_VSS_Mn4@33_s N_VSS_Mn7@1159_b N_18
+ L=1.8e-07 W=5e-07 AD=1.325e-13 AS=1.4125e-13 PD=5.3e-07 PS=5.65e-07
Mn4@32 N_OUT4_Mn4@32_d N_OUT3_Mn4@32_g N_VSS_Mn4@32_s N_VSS_Mn7@1159_b N_18
+ L=1.8e-07 W=5e-07 AD=1.325e-13 AS=1.4125e-13 PD=5.3e-07 PS=5.65e-07
Mn4@31 N_OUT4_Mn4@31_d N_OUT3_Mn4@31_g N_VSS_Mn4@31_s N_VSS_Mn7@1159_b N_18
+ L=1.8e-07 W=5e-07 AD=1.325e-13 AS=1.4125e-13 PD=5.3e-07 PS=5.65e-07
Mn4@30 N_OUT4_Mn4@30_d N_OUT3_Mn4@30_g N_VSS_Mn4@30_s N_VSS_Mn7@1159_b N_18
+ L=1.8e-07 W=5e-07 AD=1.325e-13 AS=1.4125e-13 PD=5.3e-07 PS=5.65e-07
Mn4@29 N_OUT4_Mn4@29_d N_OUT3_Mn4@29_g N_VSS_Mn4@29_s N_VSS_Mn7@1159_b N_18
+ L=1.8e-07 W=5e-07 AD=1.325e-13 AS=1.4125e-13 PD=5.3e-07 PS=5.65e-07
Mn4@28 N_OUT4_Mn4@28_d N_OUT3_Mn4@28_g N_VSS_Mn4@28_s N_VSS_Mn7@1159_b N_18
+ L=1.8e-07 W=5e-07 AD=1.325e-13 AS=1.4125e-13 PD=5.3e-07 PS=5.65e-07
Mn4@27 N_OUT4_Mn4@27_d N_OUT3_Mn4@27_g N_VSS_Mn4@27_s N_VSS_Mn7@1159_b N_18
+ L=1.8e-07 W=5e-07 AD=1.325e-13 AS=1.4125e-13 PD=5.3e-07 PS=5.65e-07
Mn4@26 N_OUT4_Mn4@26_d N_OUT3_Mn4@26_g N_VSS_Mn4@26_s N_VSS_Mn7@1159_b N_18
+ L=1.8e-07 W=5e-07 AD=1.325e-13 AS=1.4125e-13 PD=5.3e-07 PS=5.65e-07
Mn4@25 N_OUT4_Mn4@25_d N_OUT3_Mn4@25_g N_VSS_Mn4@25_s N_VSS_Mn7@1159_b N_18
+ L=1.8e-07 W=5e-07 AD=1.325e-13 AS=1.4125e-13 PD=5.3e-07 PS=5.65e-07
Mn4@24 N_OUT4_Mn4@24_d N_OUT3_Mn4@24_g N_VSS_Mn4@24_s N_VSS_Mn7@1159_b N_18
+ L=1.8e-07 W=5e-07 AD=1.325e-13 AS=1.4125e-13 PD=5.3e-07 PS=5.65e-07
Mn4@23 N_OUT4_Mn4@23_d N_OUT3_Mn4@23_g N_VSS_Mn4@23_s N_VSS_Mn7@1159_b N_18
+ L=1.8e-07 W=5e-07 AD=1.325e-13 AS=1.4125e-13 PD=5.3e-07 PS=5.65e-07
Mn4@22 N_OUT4_Mn4@22_d N_OUT3_Mn4@22_g N_VSS_Mn4@22_s N_VSS_Mn7@1159_b N_18
+ L=1.8e-07 W=5e-07 AD=1.325e-13 AS=1.4125e-13 PD=5.3e-07 PS=5.65e-07
Mn4@21 N_OUT4_Mn4@21_d N_OUT3_Mn4@21_g N_VSS_Mn4@21_s N_VSS_Mn7@1159_b N_18
+ L=1.8e-07 W=5e-07 AD=1.325e-13 AS=1.4125e-13 PD=5.3e-07 PS=5.65e-07
Mn4@20 N_OUT4_Mn4@20_d N_OUT3_Mn4@20_g N_VSS_Mn4@20_s N_VSS_Mn7@1159_b N_18
+ L=1.8e-07 W=5e-07 AD=1.325e-13 AS=1.4125e-13 PD=5.3e-07 PS=5.65e-07
Mn4@19 N_OUT4_Mn4@19_d N_OUT3_Mn4@19_g N_VSS_Mn4@19_s N_VSS_Mn7@1159_b N_18
+ L=1.8e-07 W=5e-07 AD=1.325e-13 AS=1.4125e-13 PD=5.3e-07 PS=5.65e-07
Mn4@18 N_OUT4_Mn4@18_d N_OUT3_Mn4@18_g N_VSS_Mn4@18_s N_VSS_Mn7@1159_b N_18
+ L=1.8e-07 W=5e-07 AD=1.325e-13 AS=1.4125e-13 PD=5.3e-07 PS=5.65e-07
Mn4@17 N_OUT4_Mn4@17_d N_OUT3_Mn4@17_g N_VSS_Mn4@17_s N_VSS_Mn7@1159_b N_18
+ L=1.8e-07 W=5e-07 AD=1.325e-13 AS=1.4125e-13 PD=5.3e-07 PS=5.65e-07
Mn4@16 N_OUT4_Mn4@16_d N_OUT3_Mn4@16_g N_VSS_Mn4@16_s N_VSS_Mn7@1159_b N_18
+ L=1.8e-07 W=5e-07 AD=1.325e-13 AS=1.4125e-13 PD=5.3e-07 PS=5.65e-07
Mn4@15 N_OUT4_Mn4@15_d N_OUT3_Mn4@15_g N_VSS_Mn4@15_s N_VSS_Mn7@1159_b N_18
+ L=1.8e-07 W=5e-07 AD=1.325e-13 AS=1.4125e-13 PD=5.3e-07 PS=5.65e-07
Mn4@14 N_OUT4_Mn4@14_d N_OUT3_Mn4@14_g N_VSS_Mn4@14_s N_VSS_Mn7@1159_b N_18
+ L=1.8e-07 W=5e-07 AD=1.325e-13 AS=1.4125e-13 PD=5.3e-07 PS=5.65e-07
Mn4@13 N_OUT4_Mn4@13_d N_OUT3_Mn4@13_g N_VSS_Mn4@13_s N_VSS_Mn7@1159_b N_18
+ L=1.8e-07 W=5e-07 AD=1.325e-13 AS=1.4125e-13 PD=5.3e-07 PS=5.65e-07
Mn4@12 N_OUT4_Mn4@12_d N_OUT3_Mn4@12_g N_VSS_Mn4@12_s N_VSS_Mn7@1159_b N_18
+ L=1.8e-07 W=5e-07 AD=1.325e-13 AS=1.4125e-13 PD=5.3e-07 PS=5.65e-07
Mn4@11 N_OUT4_Mn4@11_d N_OUT3_Mn4@11_g N_VSS_Mn4@11_s N_VSS_Mn7@1159_b N_18
+ L=1.8e-07 W=5e-07 AD=1.325e-13 AS=1.4125e-13 PD=5.3e-07 PS=5.65e-07
Mn4@10 N_OUT4_Mn4@10_d N_OUT3_Mn4@10_g N_VSS_Mn4@10_s N_VSS_Mn7@1159_b N_18
+ L=1.8e-07 W=5e-07 AD=1.325e-13 AS=1.4125e-13 PD=5.3e-07 PS=5.65e-07
Mn4@9 N_OUT4_Mn4@9_d N_OUT3_Mn4@9_g N_VSS_Mn4@9_s N_VSS_Mn7@1159_b N_18
+ L=1.8e-07 W=5e-07 AD=1.325e-13 AS=1.4125e-13 PD=5.3e-07 PS=5.65e-07
Mn4@8 N_OUT4_Mn4@8_d N_OUT3_Mn4@8_g N_VSS_Mn4@8_s N_VSS_Mn7@1159_b N_18
+ L=1.8e-07 W=5e-07 AD=1.325e-13 AS=1.4125e-13 PD=5.3e-07 PS=5.65e-07
Mn4@7 N_OUT4_Mn4@7_d N_OUT3_Mn4@7_g N_VSS_Mn4@7_s N_VSS_Mn7@1159_b N_18
+ L=1.8e-07 W=5e-07 AD=1.325e-13 AS=1.4125e-13 PD=5.3e-07 PS=5.65e-07
Mn4@6 N_OUT4_Mn4@6_d N_OUT3_Mn4@6_g N_VSS_Mn4@6_s N_VSS_Mn7@1159_b N_18
+ L=1.8e-07 W=5e-07 AD=1.325e-13 AS=1.4125e-13 PD=5.3e-07 PS=5.65e-07
Mn4@5 N_OUT4_Mn4@5_d N_OUT3_Mn4@5_g N_VSS_Mn4@5_s N_VSS_Mn7@1159_b N_18
+ L=1.8e-07 W=5e-07 AD=1.325e-13 AS=1.4125e-13 PD=5.3e-07 PS=5.65e-07
Mn4@4 N_OUT4_Mn4@4_d N_OUT3_Mn4@4_g N_VSS_Mn4@4_s N_VSS_Mn7@1159_b N_18
+ L=1.8e-07 W=5e-07 AD=1.325e-13 AS=1.275e-13 PD=5.3e-07 PS=5.1e-07
Mn4@3 N_OUT4_Mn4@3_d N_OUT3_Mn4@3_g N_VSS_Mn4@3_s N_VSS_Mn7@1159_b N_18
+ L=1.8e-07 W=5e-07 AD=1.4375e-13 AS=1.275e-13 PD=5.75e-07 PS=5.1e-07
Mn4@2 N_OUT4_Mn4@2_d N_OUT3_Mn4@2_g N_VSS_Mn4@2_s N_VSS_Mn7@1159_b N_18
+ L=1.8e-07 W=5e-07 AD=1.4375e-13 AS=3.005e-13 PD=5.75e-07 PS=1.702e-06
Mn5 N_OUT5_Mn5_d N_OUT4_Mn5_g N_VSS_Mn5_s N_VSS_Mn7@1159_b N_18 L=1.8e-07
+ W=5e-07 AD=1.325e-13 AS=2.995e-13 PD=5.3e-07 PS=1.698e-06
Mn5@111 N_OUT5_Mn5@111_d N_OUT4_Mn5@111_g N_VSS_Mn5@111_s N_VSS_Mn7@1159_b N_18
+ L=1.8e-07 W=5e-07 AD=1.325e-13 AS=1.4125e-13 PD=5.3e-07 PS=5.65e-07
Mn5@110 N_OUT5_Mn5@110_d N_OUT4_Mn5@110_g N_VSS_Mn5@110_s N_VSS_Mn7@1159_b N_18
+ L=1.8e-07 W=5e-07 AD=1.325e-13 AS=1.4125e-13 PD=5.3e-07 PS=5.65e-07
Mn5@109 N_OUT5_Mn5@109_d N_OUT4_Mn5@109_g N_VSS_Mn5@109_s N_VSS_Mn7@1159_b N_18
+ L=1.8e-07 W=5e-07 AD=1.325e-13 AS=1.4125e-13 PD=5.3e-07 PS=5.65e-07
Mn5@108 N_OUT5_Mn5@108_d N_OUT4_Mn5@108_g N_VSS_Mn5@108_s N_VSS_Mn7@1159_b N_18
+ L=1.8e-07 W=5e-07 AD=1.325e-13 AS=1.4125e-13 PD=5.3e-07 PS=5.65e-07
Mn5@107 N_OUT5_Mn5@107_d N_OUT4_Mn5@107_g N_VSS_Mn5@107_s N_VSS_Mn7@1159_b N_18
+ L=1.8e-07 W=5e-07 AD=1.325e-13 AS=1.4125e-13 PD=5.3e-07 PS=5.65e-07
Mn5@106 N_OUT5_Mn5@106_d N_OUT4_Mn5@106_g N_VSS_Mn5@106_s N_VSS_Mn7@1159_b N_18
+ L=1.8e-07 W=5e-07 AD=2.955e-13 AS=1.4125e-13 PD=1.682e-06 PS=5.65e-07
Mn6 N_OUT6_Mn6_d N_OUT5_Mn6_g N_VSS_Mn6_s N_VSS_Mn7@1159_b N_18 L=1.8e-07
+ W=5e-07 AD=1.325e-13 AS=2.995e-13 PD=5.3e-07 PS=1.698e-06
Mn9 N_OUT9_Mn9_d N_OUT8_Mn9_g N_VSS_Mn9_s N_VSS_Mn7@1159_b N_18 L=1.8e-07
+ W=1.1e-06 AD=6.501e-13 AS=3.1075e-13 PD=2.282e-06 PS=5.65e-07
Mn6@359 N_OUT6_Mn6@359_d N_OUT5_Mn6@359_g N_VSS_Mn6@359_s N_VSS_Mn7@1159_b N_18
+ L=1.8e-07 W=5e-07 AD=1.325e-13 AS=1.4125e-13 PD=5.3e-07 PS=5.65e-07
Mn6@358 N_OUT6_Mn6@358_d N_OUT5_Mn6@358_g N_VSS_Mn6@358_s N_VSS_Mn7@1159_b N_18
+ L=1.8e-07 W=5e-07 AD=1.325e-13 AS=1.4125e-13 PD=5.3e-07 PS=5.65e-07
Mn6@357 N_OUT6_Mn6@357_d N_OUT5_Mn6@357_g N_VSS_Mn6@357_s N_VSS_Mn7@1159_b N_18
+ L=1.8e-07 W=5e-07 AD=1.325e-13 AS=1.4125e-13 PD=5.3e-07 PS=5.65e-07
Mn6@356 N_OUT6_Mn6@356_d N_OUT5_Mn6@356_g N_VSS_Mn6@356_s N_VSS_Mn7@1159_b N_18
+ L=1.8e-07 W=5e-07 AD=1.325e-13 AS=1.4125e-13 PD=5.3e-07 PS=5.65e-07
Mn6@355 N_OUT6_Mn6@355_d N_OUT5_Mn6@355_g N_VSS_Mn6@355_s N_VSS_Mn7@1159_b N_18
+ L=1.8e-07 W=5e-07 AD=1.325e-13 AS=1.4125e-13 PD=5.3e-07 PS=5.65e-07
Mn6@354 N_OUT6_Mn6@354_d N_OUT5_Mn6@354_g N_VSS_Mn6@354_s N_VSS_Mn7@1159_b N_18
+ L=1.8e-07 W=5e-07 AD=1.325e-13 AS=1.4125e-13 PD=5.3e-07 PS=5.65e-07
Mn6@353 N_OUT6_Mn6@353_d N_OUT5_Mn6@353_g N_VSS_Mn6@353_s N_VSS_Mn7@1159_b N_18
+ L=1.8e-07 W=5e-07 AD=1.325e-13 AS=1.4125e-13 PD=5.3e-07 PS=5.65e-07
Mn6@352 N_OUT6_Mn6@352_d N_OUT5_Mn6@352_g N_VSS_Mn6@352_s N_VSS_Mn7@1159_b N_18
+ L=1.8e-07 W=5e-07 AD=1.325e-13 AS=1.4125e-13 PD=5.3e-07 PS=5.65e-07
Mn6@351 N_OUT6_Mn6@351_d N_OUT5_Mn6@351_g N_VSS_Mn6@351_s N_VSS_Mn7@1159_b N_18
+ L=1.8e-07 W=5e-07 AD=1.325e-13 AS=1.4125e-13 PD=5.3e-07 PS=5.65e-07
Mn6@350 N_OUT6_Mn6@350_d N_OUT5_Mn6@350_g N_VSS_Mn6@350_s N_VSS_Mn7@1159_b N_18
+ L=1.8e-07 W=5e-07 AD=1.325e-13 AS=1.4125e-13 PD=5.3e-07 PS=5.65e-07
Mn6@349 N_OUT6_Mn6@349_d N_OUT5_Mn6@349_g N_VSS_Mn6@349_s N_VSS_Mn7@1159_b N_18
+ L=1.8e-07 W=5e-07 AD=1.325e-13 AS=1.4125e-13 PD=5.3e-07 PS=5.65e-07
Mn6@348 N_OUT6_Mn6@348_d N_OUT5_Mn6@348_g N_VSS_Mn6@348_s N_VSS_Mn7@1159_b N_18
+ L=1.8e-07 W=5e-07 AD=1.325e-13 AS=1.4125e-13 PD=5.3e-07 PS=5.65e-07
Mn6@347 N_OUT6_Mn6@347_d N_OUT5_Mn6@347_g N_VSS_Mn6@347_s N_VSS_Mn7@1159_b N_18
+ L=1.8e-07 W=5e-07 AD=1.325e-13 AS=1.4125e-13 PD=5.3e-07 PS=5.65e-07
Mn6@346 N_OUT6_Mn6@346_d N_OUT5_Mn6@346_g N_VSS_Mn6@346_s N_VSS_Mn7@1159_b N_18
+ L=1.8e-07 W=5e-07 AD=1.325e-13 AS=1.4125e-13 PD=5.3e-07 PS=5.65e-07
Mn6@345 N_OUT6_Mn6@345_d N_OUT5_Mn6@345_g N_VSS_Mn6@345_s N_VSS_Mn7@1159_b N_18
+ L=1.8e-07 W=5e-07 AD=1.325e-13 AS=1.4125e-13 PD=5.3e-07 PS=5.65e-07
Mn6@344 N_OUT6_Mn6@344_d N_OUT5_Mn6@344_g N_VSS_Mn6@344_s N_VSS_Mn7@1159_b N_18
+ L=1.8e-07 W=5e-07 AD=1.325e-13 AS=1.4125e-13 PD=5.3e-07 PS=5.65e-07
Mn6@343 N_OUT6_Mn6@343_d N_OUT5_Mn6@343_g N_VSS_Mn6@343_s N_VSS_Mn7@1159_b N_18
+ L=1.8e-07 W=5e-07 AD=1.325e-13 AS=1.4125e-13 PD=5.3e-07 PS=5.65e-07
Mn6@342 N_OUT6_Mn6@342_d N_OUT5_Mn6@342_g N_VSS_Mn6@342_s N_VSS_Mn7@1159_b N_18
+ L=1.8e-07 W=5e-07 AD=1.325e-13 AS=1.4125e-13 PD=5.3e-07 PS=5.65e-07
Mn6@341 N_OUT6_Mn6@341_d N_OUT5_Mn6@341_g N_VSS_Mn6@341_s N_VSS_Mn7@1159_b N_18
+ L=1.8e-07 W=5e-07 AD=1.325e-13 AS=1.4125e-13 PD=5.3e-07 PS=5.65e-07
Mn6@340 N_OUT6_Mn6@340_d N_OUT5_Mn6@340_g N_VSS_Mn6@340_s N_VSS_Mn7@1159_b N_18
+ L=1.8e-07 W=5e-07 AD=1.325e-13 AS=1.4125e-13 PD=5.3e-07 PS=5.65e-07
Mn6@339 N_OUT6_Mn6@339_d N_OUT5_Mn6@339_g N_VSS_Mn6@339_s N_VSS_Mn7@1159_b N_18
+ L=1.8e-07 W=5e-07 AD=1.325e-13 AS=1.4125e-13 PD=5.3e-07 PS=5.65e-07
Mn6@338 N_OUT6_Mn6@338_d N_OUT5_Mn6@338_g N_VSS_Mn6@338_s N_VSS_Mn7@1159_b N_18
+ L=1.8e-07 W=5e-07 AD=1.325e-13 AS=1.4125e-13 PD=5.3e-07 PS=5.65e-07
Mn6@337 N_OUT6_Mn6@337_d N_OUT5_Mn6@337_g N_VSS_Mn6@337_s N_VSS_Mn7@1159_b N_18
+ L=1.8e-07 W=5e-07 AD=1.325e-13 AS=1.4125e-13 PD=5.3e-07 PS=5.65e-07
Mn6@336 N_OUT6_Mn6@336_d N_OUT5_Mn6@336_g N_VSS_Mn6@336_s N_VSS_Mn7@1159_b N_18
+ L=1.8e-07 W=5e-07 AD=1.325e-13 AS=1.4125e-13 PD=5.3e-07 PS=5.65e-07
Mn6@335 N_OUT6_Mn6@335_d N_OUT5_Mn6@335_g N_VSS_Mn6@335_s N_VSS_Mn7@1159_b N_18
+ L=1.8e-07 W=5e-07 AD=1.325e-13 AS=1.4125e-13 PD=5.3e-07 PS=5.65e-07
Mn6@334 N_OUT6_Mn6@334_d N_OUT5_Mn6@334_g N_VSS_Mn6@334_s N_VSS_Mn7@1159_b N_18
+ L=1.8e-07 W=5e-07 AD=1.325e-13 AS=1.4125e-13 PD=5.3e-07 PS=5.65e-07
Mn6@333 N_OUT6_Mn6@333_d N_OUT5_Mn6@333_g N_VSS_Mn6@333_s N_VSS_Mn7@1159_b N_18
+ L=1.8e-07 W=5e-07 AD=1.325e-13 AS=1.4125e-13 PD=5.3e-07 PS=5.65e-07
Mn6@332 N_OUT6_Mn6@332_d N_OUT5_Mn6@332_g N_VSS_Mn6@332_s N_VSS_Mn7@1159_b N_18
+ L=1.8e-07 W=5e-07 AD=1.325e-13 AS=1.4125e-13 PD=5.3e-07 PS=5.65e-07
Mn6@331 N_OUT6_Mn6@331_d N_OUT5_Mn6@331_g N_VSS_Mn6@331_s N_VSS_Mn7@1159_b N_18
+ L=1.8e-07 W=5e-07 AD=1.325e-13 AS=1.4125e-13 PD=5.3e-07 PS=5.65e-07
Mn6@330 N_OUT6_Mn6@330_d N_OUT5_Mn6@330_g N_VSS_Mn6@330_s N_VSS_Mn7@1159_b N_18
+ L=1.8e-07 W=5e-07 AD=1.325e-13 AS=1.4125e-13 PD=5.3e-07 PS=5.65e-07
Mn6@329 N_OUT6_Mn6@329_d N_OUT5_Mn6@329_g N_VSS_Mn6@329_s N_VSS_Mn7@1159_b N_18
+ L=1.8e-07 W=5e-07 AD=1.325e-13 AS=1.4125e-13 PD=5.3e-07 PS=5.65e-07
Mn6@328 N_OUT6_Mn6@328_d N_OUT5_Mn6@328_g N_VSS_Mn6@328_s N_VSS_Mn7@1159_b N_18
+ L=1.8e-07 W=5e-07 AD=1.325e-13 AS=1.4125e-13 PD=5.3e-07 PS=5.65e-07
Mn6@327 N_OUT6_Mn6@327_d N_OUT5_Mn6@327_g N_VSS_Mn6@327_s N_VSS_Mn7@1159_b N_18
+ L=1.8e-07 W=5e-07 AD=1.325e-13 AS=1.4125e-13 PD=5.3e-07 PS=5.65e-07
Mn6@326 N_OUT6_Mn6@326_d N_OUT5_Mn6@326_g N_VSS_Mn6@326_s N_VSS_Mn7@1159_b N_18
+ L=1.8e-07 W=5e-07 AD=1.325e-13 AS=1.4125e-13 PD=5.3e-07 PS=5.65e-07
Mn6@325 N_OUT6_Mn6@325_d N_OUT5_Mn6@325_g N_VSS_Mn6@325_s N_VSS_Mn7@1159_b N_18
+ L=1.8e-07 W=5e-07 AD=1.325e-13 AS=1.4125e-13 PD=5.3e-07 PS=5.65e-07
Mn6@324 N_OUT6_Mn6@324_d N_OUT5_Mn6@324_g N_VSS_Mn6@324_s N_VSS_Mn7@1159_b N_18
+ L=1.8e-07 W=5e-07 AD=1.325e-13 AS=1.4125e-13 PD=5.3e-07 PS=5.65e-07
Mn6@323 N_OUT6_Mn6@323_d N_OUT5_Mn6@323_g N_VSS_Mn6@323_s N_VSS_Mn7@1159_b N_18
+ L=1.8e-07 W=5e-07 AD=1.325e-13 AS=1.4125e-13 PD=5.3e-07 PS=5.65e-07
Mn6@322 N_OUT6_Mn6@322_d N_OUT5_Mn6@322_g N_VSS_Mn6@322_s N_VSS_Mn7@1159_b N_18
+ L=1.8e-07 W=5e-07 AD=1.325e-13 AS=1.4125e-13 PD=5.3e-07 PS=5.65e-07
Mn6@321 N_OUT6_Mn6@321_d N_OUT5_Mn6@321_g N_VSS_Mn6@321_s N_VSS_Mn7@1159_b N_18
+ L=1.8e-07 W=5e-07 AD=1.325e-13 AS=1.4125e-13 PD=5.3e-07 PS=5.65e-07
Mn6@320 N_OUT6_Mn6@320_d N_OUT5_Mn6@320_g N_VSS_Mn6@320_s N_VSS_Mn7@1159_b N_18
+ L=1.8e-07 W=5e-07 AD=1.325e-13 AS=1.4125e-13 PD=5.3e-07 PS=5.65e-07
Mn6@319 N_OUT6_Mn6@319_d N_OUT5_Mn6@319_g N_VSS_Mn6@319_s N_VSS_Mn7@1159_b N_18
+ L=1.8e-07 W=5e-07 AD=1.325e-13 AS=1.4125e-13 PD=5.3e-07 PS=5.65e-07
Mn6@318 N_OUT6_Mn6@318_d N_OUT5_Mn6@318_g N_VSS_Mn6@318_s N_VSS_Mn7@1159_b N_18
+ L=1.8e-07 W=5e-07 AD=1.325e-13 AS=1.4125e-13 PD=5.3e-07 PS=5.65e-07
Mn6@317 N_OUT6_Mn6@317_d N_OUT5_Mn6@317_g N_VSS_Mn6@317_s N_VSS_Mn7@1159_b N_18
+ L=1.8e-07 W=5e-07 AD=1.325e-13 AS=1.4125e-13 PD=5.3e-07 PS=5.65e-07
Mn6@316 N_OUT6_Mn6@316_d N_OUT5_Mn6@316_g N_VSS_Mn6@316_s N_VSS_Mn7@1159_b N_18
+ L=1.8e-07 W=5e-07 AD=1.325e-13 AS=1.4125e-13 PD=5.3e-07 PS=5.65e-07
Mn6@315 N_OUT6_Mn6@315_d N_OUT5_Mn6@315_g N_VSS_Mn6@315_s N_VSS_Mn7@1159_b N_18
+ L=1.8e-07 W=5e-07 AD=1.325e-13 AS=1.4125e-13 PD=5.3e-07 PS=5.65e-07
Mn6@314 N_OUT6_Mn6@314_d N_OUT5_Mn6@314_g N_VSS_Mn6@314_s N_VSS_Mn7@1159_b N_18
+ L=1.8e-07 W=5e-07 AD=1.325e-13 AS=1.4125e-13 PD=5.3e-07 PS=5.65e-07
Mn6@313 N_OUT6_Mn6@313_d N_OUT5_Mn6@313_g N_VSS_Mn6@313_s N_VSS_Mn7@1159_b N_18
+ L=1.8e-07 W=5e-07 AD=1.325e-13 AS=1.4125e-13 PD=5.3e-07 PS=5.65e-07
Mn6@312 N_OUT6_Mn6@312_d N_OUT5_Mn6@312_g N_VSS_Mn6@312_s N_VSS_Mn7@1159_b N_18
+ L=1.8e-07 W=5e-07 AD=1.325e-13 AS=1.4125e-13 PD=5.3e-07 PS=5.65e-07
Mn6@311 N_OUT6_Mn6@311_d N_OUT5_Mn6@311_g N_VSS_Mn6@311_s N_VSS_Mn7@1159_b N_18
+ L=1.8e-07 W=5e-07 AD=1.325e-13 AS=1.4125e-13 PD=5.3e-07 PS=5.65e-07
Mn6@310 N_OUT6_Mn6@310_d N_OUT5_Mn6@310_g N_VSS_Mn6@310_s N_VSS_Mn7@1159_b N_18
+ L=1.8e-07 W=5e-07 AD=1.325e-13 AS=1.4125e-13 PD=5.3e-07 PS=5.65e-07
Mn6@309 N_OUT6_Mn6@309_d N_OUT5_Mn6@309_g N_VSS_Mn6@309_s N_VSS_Mn7@1159_b N_18
+ L=1.8e-07 W=5e-07 AD=1.325e-13 AS=1.4125e-13 PD=5.3e-07 PS=5.65e-07
Mn6@308 N_OUT6_Mn6@308_d N_OUT5_Mn6@308_g N_VSS_Mn6@308_s N_VSS_Mn7@1159_b N_18
+ L=1.8e-07 W=5e-07 AD=1.325e-13 AS=1.4125e-13 PD=5.3e-07 PS=5.65e-07
Mn6@307 N_OUT6_Mn6@307_d N_OUT5_Mn6@307_g N_VSS_Mn6@307_s N_VSS_Mn7@1159_b N_18
+ L=1.8e-07 W=5e-07 AD=1.325e-13 AS=1.4125e-13 PD=5.3e-07 PS=5.65e-07
Mn6@306 N_OUT6_Mn6@306_d N_OUT5_Mn6@306_g N_VSS_Mn6@306_s N_VSS_Mn7@1159_b N_18
+ L=1.8e-07 W=5e-07 AD=1.325e-13 AS=1.4125e-13 PD=5.3e-07 PS=5.65e-07
Mn6@305 N_OUT6_Mn6@305_d N_OUT5_Mn6@305_g N_VSS_Mn6@305_s N_VSS_Mn7@1159_b N_18
+ L=1.8e-07 W=5e-07 AD=1.325e-13 AS=1.4125e-13 PD=5.3e-07 PS=5.65e-07
Mn6@304 N_OUT6_Mn6@304_d N_OUT5_Mn6@304_g N_VSS_Mn6@304_s N_VSS_Mn7@1159_b N_18
+ L=1.8e-07 W=5e-07 AD=1.325e-13 AS=1.4125e-13 PD=5.3e-07 PS=5.65e-07
Mn6@303 N_OUT6_Mn6@303_d N_OUT5_Mn6@303_g N_VSS_Mn6@303_s N_VSS_Mn7@1159_b N_18
+ L=1.8e-07 W=5e-07 AD=1.325e-13 AS=1.4125e-13 PD=5.3e-07 PS=5.65e-07
Mn6@302 N_OUT6_Mn6@302_d N_OUT5_Mn6@302_g N_VSS_Mn6@302_s N_VSS_Mn7@1159_b N_18
+ L=1.8e-07 W=5e-07 AD=1.325e-13 AS=1.4125e-13 PD=5.3e-07 PS=5.65e-07
Mn6@301 N_OUT6_Mn6@301_d N_OUT5_Mn6@301_g N_VSS_Mn6@301_s N_VSS_Mn7@1159_b N_18
+ L=1.8e-07 W=5e-07 AD=1.325e-13 AS=1.4125e-13 PD=5.3e-07 PS=5.65e-07
Mn6@300 N_OUT6_Mn6@300_d N_OUT5_Mn6@300_g N_VSS_Mn6@300_s N_VSS_Mn7@1159_b N_18
+ L=1.8e-07 W=5e-07 AD=1.325e-13 AS=1.4125e-13 PD=5.3e-07 PS=5.65e-07
Mn6@299 N_OUT6_Mn6@299_d N_OUT5_Mn6@299_g N_VSS_Mn6@299_s N_VSS_Mn7@1159_b N_18
+ L=1.8e-07 W=5e-07 AD=1.325e-13 AS=1.4125e-13 PD=5.3e-07 PS=5.65e-07
Mn6@298 N_OUT6_Mn6@298_d N_OUT5_Mn6@298_g N_VSS_Mn6@298_s N_VSS_Mn7@1159_b N_18
+ L=1.8e-07 W=5e-07 AD=1.325e-13 AS=1.4125e-13 PD=5.3e-07 PS=5.65e-07
Mn6@297 N_OUT6_Mn6@297_d N_OUT5_Mn6@297_g N_VSS_Mn6@297_s N_VSS_Mn7@1159_b N_18
+ L=1.8e-07 W=5e-07 AD=1.325e-13 AS=1.4125e-13 PD=5.3e-07 PS=5.65e-07
Mn6@296 N_OUT6_Mn6@296_d N_OUT5_Mn6@296_g N_VSS_Mn6@296_s N_VSS_Mn7@1159_b N_18
+ L=1.8e-07 W=5e-07 AD=1.325e-13 AS=1.4125e-13 PD=5.3e-07 PS=5.65e-07
Mn6@295 N_OUT6_Mn6@295_d N_OUT5_Mn6@295_g N_VSS_Mn6@295_s N_VSS_Mn7@1159_b N_18
+ L=1.8e-07 W=5e-07 AD=1.325e-13 AS=1.4125e-13 PD=5.3e-07 PS=5.65e-07
Mn6@294 N_OUT6_Mn6@294_d N_OUT5_Mn6@294_g N_VSS_Mn6@294_s N_VSS_Mn7@1159_b N_18
+ L=1.8e-07 W=5e-07 AD=1.325e-13 AS=1.4125e-13 PD=5.3e-07 PS=5.65e-07
Mn6@293 N_OUT6_Mn6@293_d N_OUT5_Mn6@293_g N_VSS_Mn6@293_s N_VSS_Mn7@1159_b N_18
+ L=1.8e-07 W=5e-07 AD=1.325e-13 AS=1.4125e-13 PD=5.3e-07 PS=5.65e-07
Mn6@292 N_OUT6_Mn6@292_d N_OUT5_Mn6@292_g N_VSS_Mn6@292_s N_VSS_Mn7@1159_b N_18
+ L=1.8e-07 W=5e-07 AD=1.325e-13 AS=1.4125e-13 PD=5.3e-07 PS=5.65e-07
Mn6@291 N_OUT6_Mn6@291_d N_OUT5_Mn6@291_g N_VSS_Mn6@291_s N_VSS_Mn7@1159_b N_18
+ L=1.8e-07 W=5e-07 AD=1.325e-13 AS=1.4125e-13 PD=5.3e-07 PS=5.65e-07
Mn6@290 N_OUT6_Mn6@290_d N_OUT5_Mn6@290_g N_VSS_Mn6@290_s N_VSS_Mn7@1159_b N_18
+ L=1.8e-07 W=5e-07 AD=1.325e-13 AS=1.4125e-13 PD=5.3e-07 PS=5.65e-07
Mn6@289 N_OUT6_Mn6@289_d N_OUT5_Mn6@289_g N_VSS_Mn6@289_s N_VSS_Mn7@1159_b N_18
+ L=1.8e-07 W=5e-07 AD=1.325e-13 AS=1.4125e-13 PD=5.3e-07 PS=5.65e-07
Mn6@288 N_OUT6_Mn6@288_d N_OUT5_Mn6@288_g N_VSS_Mn6@288_s N_VSS_Mn7@1159_b N_18
+ L=1.8e-07 W=5e-07 AD=1.325e-13 AS=1.4125e-13 PD=5.3e-07 PS=5.65e-07
Mn6@287 N_OUT6_Mn6@287_d N_OUT5_Mn6@287_g N_VSS_Mn6@287_s N_VSS_Mn7@1159_b N_18
+ L=1.8e-07 W=5e-07 AD=1.325e-13 AS=1.4125e-13 PD=5.3e-07 PS=5.65e-07
Mn6@286 N_OUT6_Mn6@286_d N_OUT5_Mn6@286_g N_VSS_Mn6@286_s N_VSS_Mn7@1159_b N_18
+ L=1.8e-07 W=5e-07 AD=1.325e-13 AS=1.4125e-13 PD=5.3e-07 PS=5.65e-07
Mn6@285 N_OUT6_Mn6@285_d N_OUT5_Mn6@285_g N_VSS_Mn6@285_s N_VSS_Mn7@1159_b N_18
+ L=1.8e-07 W=5e-07 AD=1.325e-13 AS=1.4125e-13 PD=5.3e-07 PS=5.65e-07
Mn6@284 N_OUT6_Mn6@284_d N_OUT5_Mn6@284_g N_VSS_Mn6@284_s N_VSS_Mn7@1159_b N_18
+ L=1.8e-07 W=5e-07 AD=1.325e-13 AS=1.4125e-13 PD=5.3e-07 PS=5.65e-07
Mn6@283 N_OUT6_Mn6@283_d N_OUT5_Mn6@283_g N_VSS_Mn6@283_s N_VSS_Mn7@1159_b N_18
+ L=1.8e-07 W=5e-07 AD=1.325e-13 AS=1.4125e-13 PD=5.3e-07 PS=5.65e-07
Mn6@282 N_OUT6_Mn6@282_d N_OUT5_Mn6@282_g N_VSS_Mn6@282_s N_VSS_Mn7@1159_b N_18
+ L=1.8e-07 W=5e-07 AD=1.325e-13 AS=1.4125e-13 PD=5.3e-07 PS=5.65e-07
Mn6@281 N_OUT6_Mn6@281_d N_OUT5_Mn6@281_g N_VSS_Mn6@281_s N_VSS_Mn7@1159_b N_18
+ L=1.8e-07 W=5e-07 AD=1.325e-13 AS=1.4125e-13 PD=5.3e-07 PS=5.65e-07
Mn6@280 N_OUT6_Mn6@280_d N_OUT5_Mn6@280_g N_VSS_Mn6@280_s N_VSS_Mn7@1159_b N_18
+ L=1.8e-07 W=5e-07 AD=1.325e-13 AS=1.4125e-13 PD=5.3e-07 PS=5.65e-07
Mn6@279 N_OUT6_Mn6@279_d N_OUT5_Mn6@279_g N_VSS_Mn6@279_s N_VSS_Mn7@1159_b N_18
+ L=1.8e-07 W=5e-07 AD=1.325e-13 AS=1.4125e-13 PD=5.3e-07 PS=5.65e-07
Mn6@278 N_OUT6_Mn6@278_d N_OUT5_Mn6@278_g N_VSS_Mn6@278_s N_VSS_Mn7@1159_b N_18
+ L=1.8e-07 W=5e-07 AD=1.325e-13 AS=1.4125e-13 PD=5.3e-07 PS=5.65e-07
Mn6@277 N_OUT6_Mn6@277_d N_OUT5_Mn6@277_g N_VSS_Mn6@277_s N_VSS_Mn7@1159_b N_18
+ L=1.8e-07 W=5e-07 AD=1.325e-13 AS=1.4125e-13 PD=5.3e-07 PS=5.65e-07
Mn6@276 N_OUT6_Mn6@276_d N_OUT5_Mn6@276_g N_VSS_Mn6@276_s N_VSS_Mn7@1159_b N_18
+ L=1.8e-07 W=5e-07 AD=1.325e-13 AS=1.4125e-13 PD=5.3e-07 PS=5.65e-07
Mn6@275 N_OUT6_Mn6@275_d N_OUT5_Mn6@275_g N_VSS_Mn6@275_s N_VSS_Mn7@1159_b N_18
+ L=1.8e-07 W=5e-07 AD=1.325e-13 AS=1.4125e-13 PD=5.3e-07 PS=5.65e-07
Mn6@274 N_OUT6_Mn6@274_d N_OUT5_Mn6@274_g N_VSS_Mn6@274_s N_VSS_Mn7@1159_b N_18
+ L=1.8e-07 W=5e-07 AD=1.325e-13 AS=1.4125e-13 PD=5.3e-07 PS=5.65e-07
Mn6@273 N_OUT6_Mn6@273_d N_OUT5_Mn6@273_g N_VSS_Mn6@273_s N_VSS_Mn7@1159_b N_18
+ L=1.8e-07 W=5e-07 AD=1.325e-13 AS=1.4125e-13 PD=5.3e-07 PS=5.65e-07
Mn6@272 N_OUT6_Mn6@272_d N_OUT5_Mn6@272_g N_VSS_Mn6@272_s N_VSS_Mn7@1159_b N_18
+ L=1.8e-07 W=5e-07 AD=1.325e-13 AS=1.4125e-13 PD=5.3e-07 PS=5.65e-07
Mn6@271 N_OUT6_Mn6@271_d N_OUT5_Mn6@271_g N_VSS_Mn6@271_s N_VSS_Mn7@1159_b N_18
+ L=1.8e-07 W=5e-07 AD=1.325e-13 AS=1.4125e-13 PD=5.3e-07 PS=5.65e-07
Mn6@270 N_OUT6_Mn6@270_d N_OUT5_Mn6@270_g N_VSS_Mn6@270_s N_VSS_Mn7@1159_b N_18
+ L=1.8e-07 W=5e-07 AD=1.325e-13 AS=1.4125e-13 PD=5.3e-07 PS=5.65e-07
Mn6@269 N_OUT6_Mn6@269_d N_OUT5_Mn6@269_g N_VSS_Mn6@269_s N_VSS_Mn7@1159_b N_18
+ L=1.8e-07 W=5e-07 AD=1.325e-13 AS=1.4125e-13 PD=5.3e-07 PS=5.65e-07
Mn6@268 N_OUT6_Mn6@268_d N_OUT5_Mn6@268_g N_VSS_Mn6@268_s N_VSS_Mn7@1159_b N_18
+ L=1.8e-07 W=5e-07 AD=1.325e-13 AS=1.4125e-13 PD=5.3e-07 PS=5.65e-07
Mn6@267 N_OUT6_Mn6@267_d N_OUT5_Mn6@267_g N_VSS_Mn6@267_s N_VSS_Mn7@1159_b N_18
+ L=1.8e-07 W=5e-07 AD=1.325e-13 AS=1.4125e-13 PD=5.3e-07 PS=5.65e-07
Mn6@266 N_OUT6_Mn6@266_d N_OUT5_Mn6@266_g N_VSS_Mn6@266_s N_VSS_Mn7@1159_b N_18
+ L=1.8e-07 W=5e-07 AD=1.325e-13 AS=1.4125e-13 PD=5.3e-07 PS=5.65e-07
Mn6@265 N_OUT6_Mn6@265_d N_OUT5_Mn6@265_g N_VSS_Mn6@265_s N_VSS_Mn7@1159_b N_18
+ L=1.8e-07 W=5e-07 AD=1.325e-13 AS=1.4125e-13 PD=5.3e-07 PS=5.65e-07
Mn6@264 N_OUT6_Mn6@264_d N_OUT5_Mn6@264_g N_VSS_Mn6@264_s N_VSS_Mn7@1159_b N_18
+ L=1.8e-07 W=5e-07 AD=1.325e-13 AS=1.4125e-13 PD=5.3e-07 PS=5.65e-07
Mn6@263 N_OUT6_Mn6@263_d N_OUT5_Mn6@263_g N_VSS_Mn6@263_s N_VSS_Mn7@1159_b N_18
+ L=1.8e-07 W=5e-07 AD=1.325e-13 AS=1.4125e-13 PD=5.3e-07 PS=5.65e-07
Mn6@262 N_OUT6_Mn6@262_d N_OUT5_Mn6@262_g N_VSS_Mn6@262_s N_VSS_Mn7@1159_b N_18
+ L=1.8e-07 W=5e-07 AD=1.325e-13 AS=1.4125e-13 PD=5.3e-07 PS=5.65e-07
Mn6@261 N_OUT6_Mn6@261_d N_OUT5_Mn6@261_g N_VSS_Mn6@261_s N_VSS_Mn7@1159_b N_18
+ L=1.8e-07 W=5e-07 AD=1.325e-13 AS=1.4125e-13 PD=5.3e-07 PS=5.65e-07
Mn6@260 N_OUT6_Mn6@260_d N_OUT5_Mn6@260_g N_VSS_Mn6@260_s N_VSS_Mn7@1159_b N_18
+ L=1.8e-07 W=5e-07 AD=1.325e-13 AS=1.4125e-13 PD=5.3e-07 PS=5.65e-07
Mn6@259 N_OUT6_Mn6@259_d N_OUT5_Mn6@259_g N_VSS_Mn6@259_s N_VSS_Mn7@1159_b N_18
+ L=1.8e-07 W=5e-07 AD=1.325e-13 AS=1.4125e-13 PD=5.3e-07 PS=5.65e-07
Mn6@258 N_OUT6_Mn6@258_d N_OUT5_Mn6@258_g N_VSS_Mn6@258_s N_VSS_Mn7@1159_b N_18
+ L=1.8e-07 W=5e-07 AD=1.325e-13 AS=1.4125e-13 PD=5.3e-07 PS=5.65e-07
Mn6@257 N_OUT6_Mn6@257_d N_OUT5_Mn6@257_g N_VSS_Mn6@257_s N_VSS_Mn7@1159_b N_18
+ L=1.8e-07 W=5e-07 AD=1.325e-13 AS=1.4125e-13 PD=5.3e-07 PS=5.65e-07
Mn6@256 N_OUT6_Mn6@256_d N_OUT5_Mn6@256_g N_VSS_Mn6@256_s N_VSS_Mn7@1159_b N_18
+ L=1.8e-07 W=5e-07 AD=1.325e-13 AS=1.4125e-13 PD=5.3e-07 PS=5.65e-07
Mn6@255 N_OUT6_Mn6@255_d N_OUT5_Mn6@255_g N_VSS_Mn6@255_s N_VSS_Mn7@1159_b N_18
+ L=1.8e-07 W=5e-07 AD=1.325e-13 AS=1.4125e-13 PD=5.3e-07 PS=5.65e-07
Mn6@254 N_OUT6_Mn6@254_d N_OUT5_Mn6@254_g N_VSS_Mn6@254_s N_VSS_Mn7@1159_b N_18
+ L=1.8e-07 W=5e-07 AD=1.325e-13 AS=1.4125e-13 PD=5.3e-07 PS=5.65e-07
Mn6@253 N_OUT6_Mn6@253_d N_OUT5_Mn6@253_g N_VSS_Mn6@253_s N_VSS_Mn7@1159_b N_18
+ L=1.8e-07 W=5e-07 AD=1.325e-13 AS=1.4125e-13 PD=5.3e-07 PS=5.65e-07
Mn6@252 N_OUT6_Mn6@252_d N_OUT5_Mn6@252_g N_VSS_Mn6@252_s N_VSS_Mn7@1159_b N_18
+ L=1.8e-07 W=5e-07 AD=1.325e-13 AS=1.4125e-13 PD=5.3e-07 PS=5.65e-07
Mn6@251 N_OUT6_Mn6@251_d N_OUT5_Mn6@251_g N_VSS_Mn6@251_s N_VSS_Mn7@1159_b N_18
+ L=1.8e-07 W=5e-07 AD=1.325e-13 AS=1.4125e-13 PD=5.3e-07 PS=5.65e-07
Mn6@250 N_OUT6_Mn6@250_d N_OUT5_Mn6@250_g N_VSS_Mn6@250_s N_VSS_Mn7@1159_b N_18
+ L=1.8e-07 W=5e-07 AD=1.325e-13 AS=1.4125e-13 PD=5.3e-07 PS=5.65e-07
Mn6@249 N_OUT6_Mn6@249_d N_OUT5_Mn6@249_g N_VSS_Mn6@249_s N_VSS_Mn7@1159_b N_18
+ L=1.8e-07 W=5e-07 AD=1.325e-13 AS=1.4125e-13 PD=5.3e-07 PS=5.65e-07
Mn6@248 N_OUT6_Mn6@248_d N_OUT5_Mn6@248_g N_VSS_Mn6@248_s N_VSS_Mn7@1159_b N_18
+ L=1.8e-07 W=5e-07 AD=1.325e-13 AS=1.4125e-13 PD=5.3e-07 PS=5.65e-07
Mn6@247 N_OUT6_Mn6@247_d N_OUT5_Mn6@247_g N_VSS_Mn6@247_s N_VSS_Mn7@1159_b N_18
+ L=1.8e-07 W=5e-07 AD=1.325e-13 AS=1.4125e-13 PD=5.3e-07 PS=5.65e-07
Mn6@246 N_OUT6_Mn6@246_d N_OUT5_Mn6@246_g N_VSS_Mn6@246_s N_VSS_Mn7@1159_b N_18
+ L=1.8e-07 W=5e-07 AD=1.325e-13 AS=1.4125e-13 PD=5.3e-07 PS=5.65e-07
Mn6@245 N_OUT6_Mn6@245_d N_OUT5_Mn6@245_g N_VSS_Mn6@245_s N_VSS_Mn7@1159_b N_18
+ L=1.8e-07 W=5e-07 AD=1.325e-13 AS=1.4125e-13 PD=5.3e-07 PS=5.65e-07
Mn6@244 N_OUT6_Mn6@244_d N_OUT5_Mn6@244_g N_VSS_Mn6@244_s N_VSS_Mn7@1159_b N_18
+ L=1.8e-07 W=5e-07 AD=1.325e-13 AS=1.4125e-13 PD=5.3e-07 PS=5.65e-07
Mn6@243 N_OUT6_Mn6@243_d N_OUT5_Mn6@243_g N_VSS_Mn6@243_s N_VSS_Mn7@1159_b N_18
+ L=1.8e-07 W=5e-07 AD=1.325e-13 AS=1.4125e-13 PD=5.3e-07 PS=5.65e-07
Mn6@242 N_OUT6_Mn6@242_d N_OUT5_Mn6@242_g N_VSS_Mn6@242_s N_VSS_Mn7@1159_b N_18
+ L=1.8e-07 W=5e-07 AD=1.325e-13 AS=1.4125e-13 PD=5.3e-07 PS=5.65e-07
Mn6@241 N_OUT6_Mn6@241_d N_OUT5_Mn6@241_g N_VSS_Mn6@241_s N_VSS_Mn7@1159_b N_18
+ L=1.8e-07 W=5e-07 AD=1.325e-13 AS=1.4125e-13 PD=5.3e-07 PS=5.65e-07
Mn6@240 N_OUT6_Mn6@240_d N_OUT5_Mn6@240_g N_VSS_Mn6@240_s N_VSS_Mn7@1159_b N_18
+ L=1.8e-07 W=5e-07 AD=1.325e-13 AS=1.4125e-13 PD=5.3e-07 PS=5.65e-07
Mn6@239 N_OUT6_Mn6@239_d N_OUT5_Mn6@239_g N_VSS_Mn6@239_s N_VSS_Mn7@1159_b N_18
+ L=1.8e-07 W=5e-07 AD=1.325e-13 AS=1.4125e-13 PD=5.3e-07 PS=5.65e-07
Mn6@238 N_OUT6_Mn6@238_d N_OUT5_Mn6@238_g N_VSS_Mn6@238_s N_VSS_Mn7@1159_b N_18
+ L=1.8e-07 W=5e-07 AD=1.325e-13 AS=1.4125e-13 PD=5.3e-07 PS=5.65e-07
Mn6@237 N_OUT6_Mn6@237_d N_OUT5_Mn6@237_g N_VSS_Mn6@237_s N_VSS_Mn7@1159_b N_18
+ L=1.8e-07 W=5e-07 AD=1.325e-13 AS=1.4125e-13 PD=5.3e-07 PS=5.65e-07
Mn6@236 N_OUT6_Mn6@236_d N_OUT5_Mn6@236_g N_VSS_Mn6@236_s N_VSS_Mn7@1159_b N_18
+ L=1.8e-07 W=5e-07 AD=1.325e-13 AS=1.4125e-13 PD=5.3e-07 PS=5.65e-07
Mn6@235 N_OUT6_Mn6@235_d N_OUT5_Mn6@235_g N_VSS_Mn6@235_s N_VSS_Mn7@1159_b N_18
+ L=1.8e-07 W=5e-07 AD=1.325e-13 AS=1.4125e-13 PD=5.3e-07 PS=5.65e-07
Mn6@234 N_OUT6_Mn6@234_d N_OUT5_Mn6@234_g N_VSS_Mn6@234_s N_VSS_Mn7@1159_b N_18
+ L=1.8e-07 W=5e-07 AD=1.325e-13 AS=1.4125e-13 PD=5.3e-07 PS=5.65e-07
Mn6@233 N_OUT6_Mn6@233_d N_OUT5_Mn6@233_g N_VSS_Mn6@233_s N_VSS_Mn7@1159_b N_18
+ L=1.8e-07 W=5e-07 AD=1.325e-13 AS=1.4125e-13 PD=5.3e-07 PS=5.65e-07
Mn6@232 N_OUT6_Mn6@232_d N_OUT5_Mn6@232_g N_VSS_Mn6@232_s N_VSS_Mn7@1159_b N_18
+ L=1.8e-07 W=5e-07 AD=1.325e-13 AS=1.4125e-13 PD=5.3e-07 PS=5.65e-07
Mn6@231 N_OUT6_Mn6@231_d N_OUT5_Mn6@231_g N_VSS_Mn6@231_s N_VSS_Mn7@1159_b N_18
+ L=1.8e-07 W=5e-07 AD=1.325e-13 AS=1.4125e-13 PD=5.3e-07 PS=5.65e-07
Mn6@230 N_OUT6_Mn6@230_d N_OUT5_Mn6@230_g N_VSS_Mn6@230_s N_VSS_Mn7@1159_b N_18
+ L=1.8e-07 W=5e-07 AD=1.325e-13 AS=1.4125e-13 PD=5.3e-07 PS=5.65e-07
Mn6@229 N_OUT6_Mn6@229_d N_OUT5_Mn6@229_g N_VSS_Mn6@229_s N_VSS_Mn7@1159_b N_18
+ L=1.8e-07 W=5e-07 AD=1.325e-13 AS=1.4125e-13 PD=5.3e-07 PS=5.65e-07
Mn6@228 N_OUT6_Mn6@228_d N_OUT5_Mn6@228_g N_VSS_Mn6@228_s N_VSS_Mn7@1159_b N_18
+ L=1.8e-07 W=5e-07 AD=1.325e-13 AS=1.4125e-13 PD=5.3e-07 PS=5.65e-07
Mn6@227 N_OUT6_Mn6@227_d N_OUT5_Mn6@227_g N_VSS_Mn6@227_s N_VSS_Mn7@1159_b N_18
+ L=1.8e-07 W=5e-07 AD=1.325e-13 AS=1.4125e-13 PD=5.3e-07 PS=5.65e-07
Mn6@226 N_OUT6_Mn6@226_d N_OUT5_Mn6@226_g N_VSS_Mn6@226_s N_VSS_Mn7@1159_b N_18
+ L=1.8e-07 W=5e-07 AD=1.325e-13 AS=1.4125e-13 PD=5.3e-07 PS=5.65e-07
Mn6@225 N_OUT6_Mn6@225_d N_OUT5_Mn6@225_g N_VSS_Mn6@225_s N_VSS_Mn7@1159_b N_18
+ L=1.8e-07 W=5e-07 AD=1.325e-13 AS=1.4125e-13 PD=5.3e-07 PS=5.65e-07
Mn6@224 N_OUT6_Mn6@224_d N_OUT5_Mn6@224_g N_VSS_Mn6@224_s N_VSS_Mn7@1159_b N_18
+ L=1.8e-07 W=5e-07 AD=1.325e-13 AS=1.4125e-13 PD=5.3e-07 PS=5.65e-07
Mn6@223 N_OUT6_Mn6@223_d N_OUT5_Mn6@223_g N_VSS_Mn6@223_s N_VSS_Mn7@1159_b N_18
+ L=1.8e-07 W=5e-07 AD=1.325e-13 AS=1.4125e-13 PD=5.3e-07 PS=5.65e-07
Mn6@222 N_OUT6_Mn6@222_d N_OUT5_Mn6@222_g N_VSS_Mn6@222_s N_VSS_Mn7@1159_b N_18
+ L=1.8e-07 W=5e-07 AD=1.325e-13 AS=1.4125e-13 PD=5.3e-07 PS=5.65e-07
Mn6@221 N_OUT6_Mn6@221_d N_OUT5_Mn6@221_g N_VSS_Mn6@221_s N_VSS_Mn7@1159_b N_18
+ L=1.8e-07 W=5e-07 AD=1.325e-13 AS=1.4125e-13 PD=5.3e-07 PS=5.65e-07
Mn6@220 N_OUT6_Mn6@220_d N_OUT5_Mn6@220_g N_VSS_Mn6@220_s N_VSS_Mn7@1159_b N_18
+ L=1.8e-07 W=5e-07 AD=1.325e-13 AS=1.4125e-13 PD=5.3e-07 PS=5.65e-07
Mn6@219 N_OUT6_Mn6@219_d N_OUT5_Mn6@219_g N_VSS_Mn6@219_s N_VSS_Mn7@1159_b N_18
+ L=1.8e-07 W=5e-07 AD=1.325e-13 AS=1.4125e-13 PD=5.3e-07 PS=5.65e-07
Mn6@218 N_OUT6_Mn6@218_d N_OUT5_Mn6@218_g N_VSS_Mn6@218_s N_VSS_Mn7@1159_b N_18